
 OpenBabel05052113333D

 15 15  0  0  1  0  0  0  0  0999 V2000
   -0.7009   -1.5565   -0.0001 C   0  0  0  0  0  0  0  0  0  0  0  0
    0.6523   -1.5765    0.0000 C   0  0  0  0  0  0  0  0  0  0  0  0
    1.0760   -0.2638   -0.0002 N   0  0  0  0  0  0  0  0  0  0  0  0
    0.0054    0.5470   -0.0002 C   0  3  0  0  0  0  0  0  0  0  0  0
   -1.0885   -0.2316   -0.0002 N   0  0  0  0  0  0  0  0  0  0  0  0
    2.4729    0.1788    0.0002 C   0  0  0  0  0  0  0  0  0  0  0  0
   -1.4145   -2.3592   -0.0001 H   0  0  0  0  0  0  0  0  0  0  0  0
    1.3424   -2.3998    0.0000 H   0  0  0  0  0  0  0  0  0  0  0  0
    3.1101   -0.6992   -0.0038 H   0  0  0  0  0  0  0  0  0  0  0  0
    2.6799    0.7659    0.8923 H   0  0  0  0  0  0  0  0  0  0  0  0
    2.6782    0.7726   -0.8877 H   0  0  0  0  0  0  0  0  0  0  0  0
    0.0481    2.0288   -0.0001 C   0  0  0  0  0  0  0  0  0  0  0  0
   -0.9534    2.4481    0.0001 H   0  0  0  0  0  0  0  0  0  0  0  0
    0.5724    2.4014   -0.8816 H   0  0  0  0  0  0  0  0  0  0  0  0
    0.5726    2.4012    0.8813 H   0  0  0  0  0  0  0  0  0  0  0  0
  1  2  2  0  0  0  0
  2  8  1  0  0  0  0
  3  4  1  0  0  0  0
  3  2  1  0  0  0  0
  3  6  1  0  0  0  0
  4 12  1  0  0  0  0
  5  4  2  0  0  0  0
  5  1  1  0  0  0  0
  6 10  1  0  0  0  0
  7  1  1  0  0  0  0
  9  6  1  0  0  0  0
 11  6  1  0  0  0  0
 12 13  1  0  0  0  0
 12 15  1  0  0  0  0
 14 12  1  0  0  0  0
M  END
