Properties=species:S:1:pos:R:3 ccsd_pol="79.070563 73.142578 61.470054 4.176667 -1.666249 0.900793" b3lyp_pol="79.88145814 73.31945796 60.57689106 5.29117477 -1.74320713 0.88866127" scan0_pol="77.344192 71.324151 58.856043 5.157022 -1.65733 0.873539"
 OpenBabel04152122303D

 13 12  0  0  0  0  0  0  0  0999 V2000
   -1.7977   -1.7520    0.0097 C   0  0  0  0  0  0  0  0  0  0  0  0
   -0.3292   -1.3537   -0.1060 C   0  0  0  0  0  0  0  0  0  0  0  0
   -0.1634    0.4393    0.0712 S   0  0  0  0  0  0  0  0  0  0  0  0
   -0.7951    1.1146   -1.0795 O   0  0  0  0  0  0  0  0  0  0  0  0
   -0.4878    0.8363    1.4557 O   0  0  0  0  0  0  0  0  0  0  0  0
    1.6736    0.7255   -0.1194 C   0  0  0  0  0  0  0  0  0  0  0  0
    2.4736   -0.1494   -0.3182 O   0  0  0  0  0  0  0  0  0  0  0  0
   -1.8848   -2.8406   -0.0999 H   0  0  0  0  0  0  0  0  0  0  0  0
   -2.3995   -1.2775   -0.7757 H   0  0  0  0  0  0  0  0  0  0  0  0
   -2.2087   -1.4707    0.9876 H   0  0  0  0  0  0  0  0  0  0  0  0
    0.1031   -1.5958   -1.0864 H   0  0  0  0  0  0  0  0  0  0  0  0
    0.2954   -1.7887    0.6860 H   0  0  0  0  0  0  0  0  0  0  0  0
    1.9025    1.8128   -0.0209 H   0  0  0  0  0  0  0  0  0  0  0  0
  1 10  1  0  0  0  0
  2  1  1  0  0  0  0
  2  3  1  0  0  0  0
  2 12  1  0  0  0  0
  3  5  2  0  0  0  0
  4  3  2  0  0  0  0
  6 13  1  0  0  0  0
  6  3  1  0  0  0  0
  7  6  2  0  0  0  0
  8  1  1  0  0  0  0
  9  1  1  0  0  0  0
 11  2  1  0  0  0  0
M  END
$$$$
