Properties=species:S:1:pos:R:3 ccsd_pol="110.187738 72.868872 58.017296 10.483255 -8.411146 -1.66445" b3lyp_pol="116.38181829 73.78148035 58.55260435 10.61592809 -9.3352806 -1.64150384" scan0_pol="114.05015 71.567825 57.22525 10.668396 -9.428739 -1.679432"
 OpenBabel04152122303D

 15 14  0  0  0  0  0  0  0  0999 V2000
   -1.8140    1.0597    0.2951 C   0  0  0  0  0  0  0  0  0  0  0  0
   -0.5193    0.3177    0.1659 C   0  0  0  0  0  0  0  0  0  0  0  0
   -0.5790   -1.0819    0.0887 N   0  0  0  0  0  0  0  0  0  0  0  0
   -1.8300   -1.6228   -0.3510 O   0  0  0  0  0  0  0  0  0  0  0  0
    0.6105    0.9444    0.1816 N   0  0  0  0  0  0  0  0  0  0  0  0
    1.8123    0.2334    0.2008 C   0  0  0  0  0  0  0  0  0  0  0  0
    2.8921    0.5679   -0.5308 C   0  0  0  0  0  0  0  0  0  0  0  0
   -1.5874    2.1259    0.3894 H   0  0  0  0  0  0  0  0  0  0  0  0
   -2.3723    0.7242    1.1813 H   0  0  0  0  0  0  0  0  0  0  0  0
   -2.4596    0.8838   -0.5761 H   0  0  0  0  0  0  0  0  0  0  0  0
    0.1586   -1.4780   -0.5008 H   0  0  0  0  0  0  0  0  0  0  0  0
   -2.1035   -2.1828    0.3998 H   0  0  0  0  0  0  0  0  0  0  0  0
    1.8795   -0.6100    0.9065 H   0  0  0  0  0  0  0  0  0  0  0  0
    2.8590    1.4059   -1.2287 H   0  0  0  0  0  0  0  0  0  0  0  0
    3.8184    0.0025   -0.4411 H   0  0  0  0  0  0  0  0  0  0  0  0
  1  8  1  0  0  0  0
  1  9  1  0  0  0  0
  2  5  2  0  0  0  0
  2  1  1  0  0  0  0
  3  2  1  0  0  0  0
  4  3  1  0  0  0  0
  4 12  1  0  0  0  0
  5  6  1  0  0  0  0
  6 13  1  0  0  0  0
  7 15  1  0  0  0  0
  7  6  2  0  0  0  0
 10  1  1  0  0  0  0
 11  3  1  0  0  0  0
 14  7  1  0  0  0  0
M  END
$$$$
